41

C         -0.56789        0.51935       -1.49317
C         -1.80512        1.22786       -2.01160
C         -0.29983       -0.85881       -2.02556
H         -1.14889       -1.54190       -1.85552
H          0.59492       -1.30210       -1.56323
H         -0.12673       -0.83928       -3.12026
C          0.63501        1.41523       -1.38126
H          0.38754        2.36655       -0.88491
H          1.02511        1.66908       -2.38624
H          1.45801        0.93901       -0.82686
C         -2.93329        0.35421       -2.53107
H         -1.48296        1.91796       -2.82009
H         -2.18072        1.90696       -1.21953
H         -2.61195       -0.24715       -3.39577
H         -3.78111        0.97121       -2.86257
H         -3.31543       -0.34452       -1.76897
C         -7.32279       -0.99892       -0.64985
H         -6.80315       -1.17971       -1.60264
H         -8.35422       -1.37108       -0.74779
H         -7.37933        0.09202       -0.50096
C         -6.61103       -1.67161        0.51903
H         -6.58858       -2.76338        0.33680
C         -5.17693       -1.21039        0.63197
C         -4.11105       -2.11579        0.54372
H         -4.32964       -3.17784        0.38160
C         -2.79412       -1.69106        0.65330
H         -1.96124       -2.39804        0.57643
C         -2.49954       -0.32938        0.85655
O         -1.24920        0.09033        0.91387
H         -0.84557        0.29042       -0.22265
C         -3.56954        0.58241        0.96540
H         -3.33490        1.63933        1.13020
C         -4.87927        0.14406        0.85690
H         -5.69871        0.86833        0.94389
C         -7.37764       -1.43542        1.82684
H         -7.44110       -0.34538        2.00856
H         -8.41945       -1.77145        1.68016
C         -6.76495       -2.13296        3.02422
H         -6.67379       -3.21725        2.84861
H         -5.75412       -1.75169        3.24122
H         -7.36996       -1.99464        3.93179
