14

O      3.67510467   -2.44493903    0.07248695
C      3.2299596    -1.29253169    0.23091198
O      3.74020498   -0.41153889    0.96245841
O      2.08399977   -1.00218143   -0.47374472
O     -0.49572009    1.34404218   -0.16059459
C     -1.91247444    1.31034799    0.21804577
O     -2.41671084    0.3368904     0.64619582
O     -2.33371877    2.50858802   -0.03920479
C      0.16931669    0.27541661   -0.03391357
C      1.59204527    0.30477321   -0.35315381
H     -3.28149898    2.58058702    0.18621822
H     -0.33362086   -0.62557736    0.33255378
H     2.07264187   0.85044836   0.48207084
H      1.76837427    0.90003146   -1.25887761
